
     RDKit          3D

  0  0  0  0  0  0  0  0  0  0999 V3000
M  V30 BEGIN CTAB
M  V30 COUNTS 17 16 0 0 0
M  V30 BEGIN ATOM
M  V30 1 Fe 0.000000 0.000000 0.000000 0
M  V30 2 N 3.995725 0.011175 0.294700 0
M  V30 3 H 4.942625 -0.226925 -0.076200 0
M  V30 4 H 3.336925 -0.706825 -0.081200 0
M  V30 5 H 3.724725 0.922575 -0.137300 0
M  V30 6 N -4.004275 0.011175 0.294700 0
M  V30 7 H -3.057375 -0.226925 -0.076200 0
M  V30 8 H -4.663075 -0.706825 -0.081200 0
M  V30 9 H -4.275275 0.922575 -0.137300 0
M  V30 10 O -0.003500 4.404100 0.000000 0
M  V30 11 H 0.784800 3.804700 0.000000 0
M  V30 12 H -0.781300 3.791200 0.000000 0
M  V30 13 O -0.003500 -3.595900 0.000000 0
M  V30 14 H 0.784800 -4.195300 0.000000 0
M  V30 15 H -0.781300 -4.208800 0.000000 0
M  V30 16 Cl 0.000000 0.000000 4.000000 0 CHG=-1
M  V30 17 Cl 0.000000 0.000000 -4.000000 0 CHG=-1
M  V30 END ATOM
M  V30 BEGIN BOND
M  V30 1 1 2 3
M  V30 2 1 2 4
M  V30 3 1 2 5
M  V30 4 9 1 2
M  V30 5 1 6 7
M  V30 6 1 6 8
M  V30 7 1 6 9
M  V30 8 9 1 6
M  V30 9 1 10 11
M  V30 10 1 10 12
M  V30 11 9 1 10
M  V30 12 1 13 14
M  V30 13 1 13 15
M  V30 14 9 1 13
M  V30 15 9 1 16
M  V30 16 9 1 17
M  V30 END BOND
M  V30 END CTAB
M  END
$$$$
